<?xml version="1.0" encoding="UTF-8"?>

<!-- generated on 2019年07月09日 星期二 16时03分25秒 by Eclipse SUMO netedit Version 1.2.0
<configuration xmlns:xsi="http://www.w3.org/2001/XMLSchema-instance" xsi:noNamespaceSchemaLocation="http://sumo.dlr.de/xsd/netconvertConfiguration.xsd">

    <input>
        <sumo-net-file value="/home/idriver/Sumo/highway_work/data/highway.net.xml"/>
    </input>

    <output>
        <output-file value="/home/idriver/Sumo/highway_work/data/highway.net.xml"/>
    </output>

    <processing>
        <geometry.max-grade.fix value="false"/>
        <offset.disable-normalization value="true"/>
        <lefthand value="false"/>
    </processing>

    <junctions>
        <no-turnarounds value="true"/>
        <junctions.corner-detail value="5"/>
        <junctions.limit-turn-speed value="5.5"/>
        <rectangular-lane-cut value="false"/>
    </junctions>

    <pedestrian>
        <walkingareas value="false"/>
    </pedestrian>

</configuration>
-->

<net version="1.1" junctionCornerDetail="5" limitTurnSpeed="5.50" xmlns:xsi="http://www.w3.org/2001/XMLSchema-instance" xsi:noNamespaceSchemaLocation="http://sumo.dlr.de/xsd/net_file.xsd">

    <location netOffset="0.00,0.00" convBoundary="-10.00,-100.00,5010.00,100.00" origBoundary="-10000000000.00,-10000000000.00,10000000000.00,10000000000.00" projParameter="!"/>

    <edge id=":-gneJ5_0" function="internal">
        <lane id=":-gneJ5_0_0" index="0" speed="29.16" length="8.27" shape="2704.00,4.80 2701.54,5.30 2700.00,6.40 2698.46,7.50 2696.00,8.00"/>
        <lane id=":-gneJ5_0_1" index="1" speed="29.16" length="8.27" shape="2704.00,4.80 2696.00,4.80"/>
        <lane id=":-gneJ5_0_2" index="2" speed="29.16" length="8.27" shape="2704.00,1.60 2696.00,1.60"/>
    </edge>
    <edge id=":-gneJ6_0" function="internal">
        <lane id=":-gneJ6_0_0" index="0" speed="25.00" length="8.00" shape="3004.00,4.80 2996.00,4.80"/>
        <lane id=":-gneJ6_0_1" index="1" speed="25.00" length="8.00" shape="3004.00,1.60 2996.00,1.60"/>
    </edge>
    <edge id=":gneJ1_0" function="internal">
        <lane id=":gneJ1_0_0" index="0" speed="33.33" length="0.10" shape="0.00,8.00 0.00,8.00"/>
        <lane id=":gneJ1_0_1" index="1" speed="33.33" length="0.10" shape="0.00,4.80 0.00,4.80"/>
        <lane id=":gneJ1_0_2" index="2" speed="33.33" length="0.10" shape="0.00,1.60 0.00,1.60"/>
    </edge>
    <edge id=":gneJ1_3" function="internal">
        <lane id=":gneJ1_3_0" index="0" speed="33.33" length="0.10" shape="0.00,-8.00 0.00,-8.00"/>
        <lane id=":gneJ1_3_1" index="1" speed="33.33" length="0.10" shape="0.00,-4.80 0.00,-4.80"/>
        <lane id=":gneJ1_3_2" index="2" speed="33.33" length="0.10" shape="0.00,-1.60 0.00,-1.60"/>
    </edge>
    <edge id=":gneJ2_0" function="internal">
        <lane id=":gneJ2_0_0" index="0" speed="33.33" length="20.80" shape="810.40,8.00 789.60,8.00"/>
        <lane id=":gneJ2_0_1" index="1" speed="33.33" length="20.80" shape="810.40,4.80 789.60,4.80"/>
        <lane id=":gneJ2_0_2" index="2" speed="33.33" length="20.80" shape="810.40,1.60 789.60,1.60"/>
    </edge>
    <edge id=":gneJ2_3" function="internal">
        <lane id=":gneJ2_3_0" index="0" speed="6.51" length="9.03" shape="804.80,-13.60 805.15,-11.15 806.20,-9.40 807.95,-8.35 810.40,-8.00"/>
    </edge>
    <edge id=":gneJ2_4" function="internal">
        <lane id=":gneJ2_4_0" index="0" speed="6.51" length="9.03" shape="789.60,-8.00 792.05,-8.35 793.80,-9.40 794.85,-11.15 795.20,-13.60"/>
    </edge>
    <edge id=":gneJ2_5" function="internal">
        <lane id=":gneJ2_5_0" index="0" speed="33.33" length="20.80" shape="789.60,-8.00 810.40,-8.00"/>
        <lane id=":gneJ2_5_1" index="1" speed="33.33" length="20.80" shape="789.60,-4.80 810.40,-4.80"/>
        <lane id=":gneJ2_5_2" index="2" speed="33.33" length="20.80" shape="789.60,-1.60 810.40,-1.60"/>
    </edge>
    <edge id=":gneJ3_0" function="internal">
        <lane id=":gneJ3_0_0" index="0" speed="6.51" length="9.03" shape="1498.40,13.60 1498.05,11.15 1497.00,9.40 1495.25,8.35 1492.80,8.00"/>
    </edge>
    <edge id=":gneJ3_1" function="internal">
        <lane id=":gneJ3_1_0" index="0" speed="6.51" length="9.03" shape="1507.20,8.00 1504.75,8.35 1503.00,9.40 1501.95,11.15 1501.60,13.60"/>
    </edge>
    <edge id=":gneJ3_2" function="internal">
        <lane id=":gneJ3_2_0" index="0" speed="33.33" length="14.40" shape="1507.20,8.00 1492.80,8.00"/>
        <lane id=":gneJ3_2_1" index="1" speed="33.33" length="14.40" shape="1507.20,4.80 1492.80,4.80"/>
        <lane id=":gneJ3_2_2" index="2" speed="33.33" length="14.40" shape="1507.20,1.60 1492.80,1.60"/>
    </edge>
    <edge id=":gneJ3_5" function="internal">
        <lane id=":gneJ3_5_0" index="0" speed="33.33" length="14.40" shape="1492.80,-8.00 1507.20,-8.00"/>
        <lane id=":gneJ3_5_1" index="1" speed="33.33" length="14.40" shape="1492.80,-4.80 1507.20,-4.80"/>
        <lane id=":gneJ3_5_2" index="2" speed="33.33" length="14.40" shape="1492.80,-1.60 1507.20,-1.60"/>
    </edge>
    <edge id=":gneJ4_0" function="internal">
        <lane id=":gneJ4_0_0" index="0" speed="33.33" length="20.80" shape="2210.40,8.00 2189.60,8.00"/>
        <lane id=":gneJ4_0_1" index="1" speed="33.33" length="20.80" shape="2210.40,4.80 2189.60,4.80"/>
        <lane id=":gneJ4_0_2" index="2" speed="33.33" length="20.80" shape="2210.40,1.60 2189.60,1.60"/>
    </edge>
    <edge id=":gneJ4_3" function="internal">
        <lane id=":gneJ4_3_0" index="0" speed="6.51" length="9.03" shape="2204.80,-13.60 2205.15,-11.15 2206.20,-9.40 2207.95,-8.35 2210.40,-8.00"/>
    </edge>
    <edge id=":gneJ4_4" function="internal">
        <lane id=":gneJ4_4_0" index="0" speed="6.51" length="9.03" shape="2189.60,-8.00 2192.05,-8.35 2193.80,-9.40 2194.85,-11.15 2195.20,-13.60"/>
    </edge>
    <edge id=":gneJ4_5" function="internal">
        <lane id=":gneJ4_5_0" index="0" speed="33.33" length="20.80" shape="2189.60,-8.00 2210.40,-8.00"/>
        <lane id=":gneJ4_5_1" index="1" speed="33.33" length="20.80" shape="2189.60,-4.80 2210.40,-4.80"/>
        <lane id=":gneJ4_5_2" index="2" speed="33.33" length="20.80" shape="2189.60,-1.60 2210.40,-1.60"/>
    </edge>
    <edge id=":gneJ5_0" function="internal">
        <lane id=":gneJ5_0_0" index="0" speed="29.16" length="8.00" shape="2696.00,-4.80 2704.00,-4.80"/>
        <lane id=":gneJ5_0_1" index="1" speed="29.16" length="8.00" shape="2696.00,-1.60 2704.00,-1.60"/>
    </edge>
    <edge id=":gneJ6_0" function="internal">
        <lane id=":gneJ6_0_0" index="0" speed="25.00" length="8.27" shape="2996.00,-4.80 2998.46,-5.30 3000.00,-6.40 3001.54,-7.50 3004.00,-8.00"/>
        <lane id=":gneJ6_0_1" index="1" speed="25.00" length="8.27" shape="2996.00,-4.80 3004.00,-4.80"/>
        <lane id=":gneJ6_0_2" index="2" speed="25.00" length="8.27" shape="2996.00,-1.60 3004.00,-1.60"/>
    </edge>
    <edge id=":gneJ7_0" function="internal">
        <lane id=":gneJ7_0_0" index="0" speed="6.51" length="9.03" shape="3998.40,13.60 3998.05,11.15 3997.00,9.40 3995.25,8.35 3992.80,8.00"/>
    </edge>
    <edge id=":gneJ7_1" function="internal">
        <lane id=":gneJ7_1_0" index="0" speed="6.51" length="9.03" shape="4007.20,8.00 4004.75,8.35 4003.00,9.40 4001.95,11.15 4001.60,13.60"/>
    </edge>
    <edge id=":gneJ7_2" function="internal">
        <lane id=":gneJ7_2_0" index="0" speed="25.00" length="14.40" shape="4007.20,8.00 3992.80,8.00"/>
        <lane id=":gneJ7_2_1" index="1" speed="25.00" length="14.40" shape="4007.20,4.80 3992.80,4.80"/>
        <lane id=":gneJ7_2_2" index="2" speed="25.00" length="14.40" shape="4007.20,1.60 3992.80,1.60"/>
    </edge>
    <edge id=":gneJ7_5" function="internal">
        <lane id=":gneJ7_5_0" index="0" speed="25.00" length="14.40" shape="3992.80,-8.00 4007.20,-8.00"/>
        <lane id=":gneJ7_5_1" index="1" speed="25.00" length="14.40" shape="3992.80,-4.80 4007.20,-4.80"/>
        <lane id=":gneJ7_5_2" index="2" speed="25.00" length="14.40" shape="3992.80,-1.60 4007.20,-1.60"/>
    </edge>
    <edge id=":gneJ8_0" function="internal">
        <lane id=":gneJ8_0_0" index="0" speed="25.00" length="0.10" shape="5000.00,8.00 5000.00,8.00"/>
        <lane id=":gneJ8_0_1" index="1" speed="25.00" length="0.10" shape="5000.00,4.80 5000.00,4.80"/>
        <lane id=":gneJ8_0_2" index="2" speed="25.00" length="0.10" shape="5000.00,1.60 5000.00,1.60"/>
    </edge>
    <edge id=":gneJ8_3" function="internal">
        <lane id=":gneJ8_3_0" index="0" speed="25.00" length="0.10" shape="5000.00,-8.00 5000.00,-8.00"/>
        <lane id=":gneJ8_3_1" index="1" speed="25.00" length="0.10" shape="5000.00,-4.80 5000.00,-4.80"/>
        <lane id=":gneJ8_3_2" index="2" speed="25.00" length="0.10" shape="5000.00,-1.60 5000.00,-1.60"/>
    </edge>

    <edge id="-gneE0" from="gneJ1" to="gneJ0" priority="-1">
        <lane id="-gneE0_0" index="0" speed="33.33" length="10.00" shape="0.00,8.00 -10.00,8.00"/>
        <lane id="-gneE0_1" index="1" speed="33.33" length="10.00" shape="0.00,4.80 -10.00,4.80"/>
        <lane id="-gneE0_2" index="2" speed="33.33" length="10.00" shape="0.00,1.60 -10.00,1.60"/>
    </edge>
    <edge id="-gneE1" from="gneJ2" to="gneJ1" priority="-1">
        <lane id="-gneE1_0" index="0" speed="33.33" length="789.60" shape="789.60,8.00 0.00,8.00"/>
        <lane id="-gneE1_1" index="1" speed="33.33" length="789.60" shape="789.60,4.80 0.00,4.80"/>
        <lane id="-gneE1_2" index="2" speed="33.33" length="789.60" shape="789.60,1.60 0.00,1.60"/>
    </edge>
    <edge id="-gneE10" from="gneJ11" to="gneJ3" priority="-1">
        <lane id="-gneE10_0" index="0" speed="13.89" length="86.40" shape="1498.40,100.00 1498.40,13.60"/>
    </edge>
    <edge id="-gneE11" from="gneJ4" to="gneJ12" priority="-1">
        <lane id="-gneE11_0" index="0" speed="13.89" length="86.40" shape="2195.20,-13.60 2195.20,-100.00"/>
        <lane id="-gneE11_1" index="1" speed="13.89" length="86.40" shape="2198.40,-13.60 2198.40,-100.00"/>
    </edge>
    <edge id="-gneE12" from="gneJ13" to="gneJ7" priority="-1">
        <lane id="-gneE12_0" index="0" speed="13.89" length="86.40" shape="3998.40,100.00 3998.40,13.60"/>
    </edge>
    <edge id="-gneE2" from="gneJ3" to="gneJ2" priority="-1">
        <lane id="-gneE2_0" index="0" speed="33.33" length="682.40" shape="1492.80,8.00 810.40,8.00"/>
        <lane id="-gneE2_1" index="1" speed="33.33" length="682.40" shape="1492.80,4.80 810.40,4.80"/>
        <lane id="-gneE2_2" index="2" speed="33.33" length="682.40" shape="1492.80,1.60 810.40,1.60"/>
    </edge>
    <edge id="-gneE3" from="gneJ4" to="gneJ3" priority="-1">
        <lane id="-gneE3_0" index="0" speed="33.33" length="682.40" shape="2189.60,8.00 1507.20,8.00"/>
        <lane id="-gneE3_1" index="1" speed="33.33" length="682.40" shape="2189.60,4.80 1507.20,4.80"/>
        <lane id="-gneE3_2" index="2" speed="33.33" length="682.40" shape="2189.60,1.60 1507.20,1.60"/>
    </edge>
    <edge id="-gneE4" from="-gneJ5" to="gneJ4" priority="-1">
        <lane id="-gneE4_0" index="0" speed="33.33" length="485.60" shape="2696.00,8.00 2210.40,8.00"/>
        <lane id="-gneE4_1" index="1" speed="33.33" length="485.60" shape="2696.00,4.80 2210.40,4.80"/>
        <lane id="-gneE4_2" index="2" speed="33.33" length="485.60" shape="2696.00,1.60 2210.40,1.60"/>
    </edge>
    <edge id="-gneE5" from="-gneJ6" to="-gneJ5" priority="-1">
        <lane id="-gneE5_0" index="0" speed="25.00" length="292.00" shape="2996.00,4.80 2704.00,4.80"/>
        <lane id="-gneE5_1" index="1" speed="25.00" length="292.00" shape="2996.00,1.60 2704.00,1.60"/>
    </edge>
    <edge id="-gneE6" from="gneJ7" to="-gneJ6" priority="-1">
        <lane id="-gneE6_0" index="0" speed="25.00" length="988.80" shape="3992.80,8.00 3004.00,8.00"/>
        <lane id="-gneE6_1" index="1" speed="25.00" length="988.80" shape="3992.80,4.80 3004.00,4.80"/>
        <lane id="-gneE6_2" index="2" speed="25.00" length="988.80" shape="3992.80,1.60 3004.00,1.60"/>
    </edge>
    <edge id="-gneE7" from="gneJ8" to="gneJ7" priority="-1">
        <lane id="-gneE7_0" index="0" speed="25.00" length="992.80" shape="5000.00,8.00 4007.20,8.00"/>
        <lane id="-gneE7_1" index="1" speed="25.00" length="992.80" shape="5000.00,4.80 4007.20,4.80"/>
        <lane id="-gneE7_2" index="2" speed="25.00" length="992.80" shape="5000.00,1.60 4007.20,1.60"/>
    </edge>
    <edge id="-gneE8" from="gneJ9" to="gneJ8" priority="-1">
        <lane id="-gneE8_0" index="0" speed="25.00" length="10.00" shape="5010.00,8.00 5000.00,8.00"/>
        <lane id="-gneE8_1" index="1" speed="25.00" length="10.00" shape="5010.00,4.80 5000.00,4.80"/>
        <lane id="-gneE8_2" index="2" speed="25.00" length="10.00" shape="5010.00,1.60 5000.00,1.60"/>
    </edge>
    <edge id="-gneE9" from="gneJ2" to="gneJ10" priority="-1">
        <lane id="-gneE9_0" index="0" speed="13.89" length="86.40" shape="795.20,-13.60 795.20,-100.00"/>
        <lane id="-gneE9_1" index="1" speed="13.89" length="86.40" shape="798.40,-13.60 798.40,-100.00"/>
    </edge>
    <edge id="gneE0" from="gneJ0" to="gneJ1" priority="-1">
        <lane id="gneE0_0" index="0" speed="33.33" length="10.00" shape="-10.00,-8.00 0.00,-8.00"/>
        <lane id="gneE0_1" index="1" speed="33.33" length="10.00" shape="-10.00,-4.80 0.00,-4.80"/>
        <lane id="gneE0_2" index="2" speed="33.33" length="10.00" shape="-10.00,-1.60 0.00,-1.60"/>
    </edge>
    <edge id="gneE1" from="gneJ1" to="gneJ2" priority="-1">
        <lane id="gneE1_0" index="0" speed="33.33" length="789.60" shape="0.00,-8.00 789.60,-8.00"/>
        <lane id="gneE1_1" index="1" speed="33.33" length="789.60" shape="0.00,-4.80 789.60,-4.80"/>
        <lane id="gneE1_2" index="2" speed="33.33" length="789.60" shape="0.00,-1.60 789.60,-1.60"/>
    </edge>
    <edge id="gneE10" from="gneJ3" to="gneJ11" priority="-1">
        <lane id="gneE10_0" index="0" speed="13.89" length="86.40" shape="1501.60,13.60 1501.60,100.00"/>
    </edge>
    <edge id="gneE11" from="gneJ12" to="gneJ4" priority="-1">
        <lane id="gneE11_0" index="0" speed="13.89" length="86.40" shape="2204.80,-100.00 2204.80,-13.60"/>
        <lane id="gneE11_1" index="1" speed="13.89" length="86.40" shape="2201.60,-100.00 2201.60,-13.60"/>
    </edge>
    <edge id="gneE12" from="gneJ7" to="gneJ13" priority="-1">
        <lane id="gneE12_0" index="0" speed="13.89" length="86.40" shape="4001.60,13.60 4001.60,100.00"/>
    </edge>
    <edge id="gneE2" from="gneJ2" to="gneJ3" priority="-1">
        <lane id="gneE2_0" index="0" speed="33.33" length="682.40" shape="810.40,-8.00 1492.80,-8.00"/>
        <lane id="gneE2_1" index="1" speed="33.33" length="682.40" shape="810.40,-4.80 1492.80,-4.80"/>
        <lane id="gneE2_2" index="2" speed="33.33" length="682.40" shape="810.40,-1.60 1492.80,-1.60"/>
    </edge>
    <edge id="gneE3" from="gneJ3" to="gneJ4" priority="-1">
        <lane id="gneE3_0" index="0" speed="33.33" length="682.40" shape="1507.20,-8.00 2189.60,-8.00"/>
        <lane id="gneE3_1" index="1" speed="33.33" length="682.40" shape="1507.20,-4.80 2189.60,-4.80"/>
        <lane id="gneE3_2" index="2" speed="33.33" length="682.40" shape="1507.20,-1.60 2189.60,-1.60"/>
    </edge>
    <edge id="gneE4" from="gneJ4" to="gneJ5" priority="-1">
        <lane id="gneE4_0" index="0" speed="33.33" length="485.60" shape="2210.40,-8.00 2696.00,-8.00"/>
        <lane id="gneE4_1" index="1" speed="33.33" length="485.60" shape="2210.40,-4.80 2696.00,-4.80"/>
        <lane id="gneE4_2" index="2" speed="33.33" length="485.60" shape="2210.40,-1.60 2696.00,-1.60"/>
    </edge>
    <edge id="gneE5" from="gneJ5" to="gneJ6" priority="-1">
        <lane id="gneE5_0" index="0" speed="25.00" length="292.00" shape="2704.00,-4.80 2996.00,-4.80"/>
        <lane id="gneE5_1" index="1" speed="25.00" length="292.00" shape="2704.00,-1.60 2996.00,-1.60"/>
    </edge>
    <edge id="gneE6" from="gneJ6" to="gneJ7" priority="-1">
        <lane id="gneE6_0" index="0" speed="25.00" length="988.80" shape="3004.00,-8.00 3992.80,-8.00"/>
        <lane id="gneE6_1" index="1" speed="25.00" length="988.80" shape="3004.00,-4.80 3992.80,-4.80"/>
        <lane id="gneE6_2" index="2" speed="25.00" length="988.80" shape="3004.00,-1.60 3992.80,-1.60"/>
    </edge>
    <edge id="gneE7" from="gneJ7" to="gneJ8" priority="-1">
        <lane id="gneE7_0" index="0" speed="25.00" length="992.80" shape="4007.20,-8.00 5000.00,-8.00"/>
        <lane id="gneE7_1" index="1" speed="25.00" length="992.80" shape="4007.20,-4.80 5000.00,-4.80"/>
        <lane id="gneE7_2" index="2" speed="25.00" length="992.80" shape="4007.20,-1.60 5000.00,-1.60"/>
    </edge>
    <edge id="gneE8" from="gneJ8" to="gneJ9" priority="-1">
        <lane id="gneE8_0" index="0" speed="25.00" length="10.00" shape="5000.00,-8.00 5010.00,-8.00"/>
        <lane id="gneE8_1" index="1" speed="25.00" length="10.00" shape="5000.00,-4.80 5010.00,-4.80"/>
        <lane id="gneE8_2" index="2" speed="25.00" length="10.00" shape="5000.00,-1.60 5010.00,-1.60"/>
    </edge>
    <edge id="gneE9" from="gneJ10" to="gneJ2" priority="-1">
        <lane id="gneE9_0" index="0" speed="13.89" length="86.40" shape="804.80,-100.00 804.80,-13.60"/>
        <lane id="gneE9_1" index="1" speed="13.89" length="86.40" shape="801.60,-100.00 801.60,-13.60"/>
    </edge>

    <junction id="-gneJ5" type="priority" x="2700.00" y="0.00" incLanes="-gneE5_0 -gneE5_1" intLanes=":-gneJ5_0_0 :-gneJ5_0_1 :-gneJ5_0_2" shape="2704.00,6.40 2704.00,0.00 2696.00,0.00 2696.00,9.60 2699.03,8.77 2700.97,7.23 2702.21,6.64">
        <request index="0" response="000" foes="000" cont="0"/>
        <request index="1" response="000" foes="000" cont="0"/>
        <request index="2" response="000" foes="000" cont="0"/>
    </junction>
    <junction id="-gneJ6" type="priority" x="3000.00" y="0.00" incLanes="-gneE6_0 -gneE6_1 -gneE6_2" intLanes=":-gneJ6_0_0 :-gneJ6_0_1" shape="3004.00,9.60 3004.00,0.00 2996.00,0.00 2996.00,6.40 2999.03,7.23 3000.97,8.77 3002.21,9.36">
        <request index="0" response="00" foes="00" cont="0"/>
        <request index="1" response="00" foes="00" cont="0"/>
    </junction>
    <junction id="gneJ0" type="dead_end" x="-10.00" y="0.00" incLanes="-gneE0_0 -gneE0_1 -gneE0_2" intLanes="" shape="-10.00,0.00 -10.00,9.60 -10.00,0.00"/>
    <junction id="gneJ1" type="priority" x="0.00" y="0.00" incLanes="-gneE1_0 -gneE1_1 -gneE1_2 gneE0_0 gneE0_1 gneE0_2" intLanes=":gneJ1_0_0 :gneJ1_0_1 :gneJ1_0_2 :gneJ1_3_0 :gneJ1_3_1 :gneJ1_3_2" shape="0.00,9.60 0.00,-9.60 0.00,9.60">
        <request index="0" response="000000" foes="000000" cont="0"/>
        <request index="1" response="000000" foes="000000" cont="0"/>
        <request index="2" response="000000" foes="000000" cont="0"/>
        <request index="3" response="000000" foes="000000" cont="0"/>
        <request index="4" response="000000" foes="000000" cont="0"/>
        <request index="5" response="000000" foes="000000" cont="0"/>
    </junction>
    <junction id="gneJ10" type="dead_end" x="800.00" y="-100.00" incLanes="-gneE9_0 -gneE9_1" intLanes="" shape="800.00,-100.00 793.60,-100.00 800.00,-100.00"/>
    <junction id="gneJ11" type="dead_end" x="1500.00" y="100.00" incLanes="gneE10_0" intLanes="" shape="1500.00,100.00 1503.20,100.00 1500.00,100.00"/>
    <junction id="gneJ12" type="dead_end" x="2200.00" y="-100.00" incLanes="-gneE11_0 -gneE11_1" intLanes="" shape="2200.00,-100.00 2193.60,-100.00 2200.00,-100.00"/>
    <junction id="gneJ13" type="dead_end" x="4000.00" y="100.00" incLanes="gneE12_0" intLanes="" shape="4000.00,100.00 4003.20,100.00 4000.00,100.00"/>
    <junction id="gneJ2" type="priority" x="800.00" y="0.00" incLanes="-gneE2_0 -gneE2_1 -gneE2_2 gneE9_0 gneE9_1 gneE1_0 gneE1_1 gneE1_2" intLanes=":gneJ2_0_0 :gneJ2_0_1 :gneJ2_0_2 :gneJ2_3_0 :gneJ2_4_0 :gneJ2_5_0 :gneJ2_5_1 :gneJ2_5_2" shape="810.40,9.60 810.40,-9.60 808.18,-10.04 807.40,-10.60 806.84,-11.38 806.51,-12.38 806.40,-13.60 793.60,-13.60 793.16,-11.38 792.60,-10.60 791.82,-10.04 790.82,-9.71 789.60,-9.60 789.60,9.60">
        <request index="0" response="00000000" foes="00000000" cont="0"/>
        <request index="1" response="00000000" foes="00000000" cont="0"/>
        <request index="2" response="00000000" foes="00000000" cont="0"/>
        <request index="3" response="11100000" foes="11100000" cont="0"/>
        <request index="4" response="00000000" foes="00000000" cont="0"/>
        <request index="5" response="00000000" foes="00001000" cont="0"/>
        <request index="6" response="00000000" foes="00001000" cont="0"/>
        <request index="7" response="00000000" foes="00001000" cont="0"/>
    </junction>
    <junction id="gneJ3" type="priority" x="1500.00" y="0.00" incLanes="-gneE10_0 -gneE3_0 -gneE3_1 -gneE3_2 gneE2_0 gneE2_1 gneE2_2" intLanes=":gneJ3_0_0 :gneJ3_1_0 :gneJ3_2_0 :gneJ3_2_1 :gneJ3_2_2 :gneJ3_5_0 :gneJ3_5_1 :gneJ3_5_2" shape="1496.80,13.60 1503.20,13.60 1503.64,11.38 1504.20,10.60 1504.98,10.04 1505.98,9.71 1507.20,9.60 1507.20,-9.60 1492.80,-9.60 1492.80,9.60 1495.02,10.04 1495.80,10.60 1496.36,11.38 1496.69,12.38">
        <request index="0" response="00011100" foes="00011100" cont="0"/>
        <request index="1" response="00000000" foes="00000000" cont="0"/>
        <request index="2" response="00000000" foes="00000001" cont="0"/>
        <request index="3" response="00000000" foes="00000001" cont="0"/>
        <request index="4" response="00000000" foes="00000001" cont="0"/>
        <request index="5" response="00000000" foes="00000000" cont="0"/>
        <request index="6" response="00000000" foes="00000000" cont="0"/>
        <request index="7" response="00000000" foes="00000000" cont="0"/>
    </junction>
    <junction id="gneJ4" type="priority" x="2200.00" y="0.00" incLanes="-gneE4_0 -gneE4_1 -gneE4_2 gneE11_0 gneE11_1 gneE3_0 gneE3_1 gneE3_2" intLanes=":gneJ4_0_0 :gneJ4_0_1 :gneJ4_0_2 :gneJ4_3_0 :gneJ4_4_0 :gneJ4_5_0 :gneJ4_5_1 :gneJ4_5_2" shape="2210.40,9.60 2210.40,-9.60 2208.18,-10.04 2207.40,-10.60 2206.84,-11.38 2206.51,-12.38 2206.40,-13.60 2193.60,-13.60 2193.16,-11.38 2192.60,-10.60 2191.82,-10.04 2190.82,-9.71 2189.60,-9.60 2189.60,9.60">
        <request index="0" response="00000000" foes="00000000" cont="0"/>
        <request index="1" response="00000000" foes="00000000" cont="0"/>
        <request index="2" response="00000000" foes="00000000" cont="0"/>
        <request index="3" response="11100000" foes="11100000" cont="0"/>
        <request index="4" response="00000000" foes="00000000" cont="0"/>
        <request index="5" response="00000000" foes="00001000" cont="0"/>
        <request index="6" response="00000000" foes="00001000" cont="0"/>
        <request index="7" response="00000000" foes="00001000" cont="0"/>
    </junction>
    <junction id="gneJ5" type="priority" x="2700.00" y="0.00" incLanes="gneE4_0 gneE4_1 gneE4_2" intLanes=":gneJ5_0_0 :gneJ5_0_1" shape="2704.00,0.00 2704.00,-6.40 2700.97,-7.23 2699.03,-8.77 2697.79,-9.36 2696.00,-9.60 2696.00,0.00">
        <request index="0" response="00" foes="00" cont="0"/>
        <request index="1" response="00" foes="00" cont="0"/>
    </junction>
    <junction id="gneJ6" type="priority" x="3000.00" y="0.00" incLanes="gneE5_0 gneE5_1" intLanes=":gneJ6_0_0 :gneJ6_0_1 :gneJ6_0_2" shape="3004.00,0.00 3004.00,-9.60 3000.97,-8.77 2999.03,-7.23 2997.79,-6.64 2996.00,-6.40 2996.00,0.00">
        <request index="0" response="000" foes="000" cont="0"/>
        <request index="1" response="000" foes="000" cont="0"/>
        <request index="2" response="000" foes="000" cont="0"/>
    </junction>
    <junction id="gneJ7" type="priority" x="4000.00" y="0.00" incLanes="-gneE12_0 -gneE7_0 -gneE7_1 -gneE7_2 gneE6_0 gneE6_1 gneE6_2" intLanes=":gneJ7_0_0 :gneJ7_1_0 :gneJ7_2_0 :gneJ7_2_1 :gneJ7_2_2 :gneJ7_5_0 :gneJ7_5_1 :gneJ7_5_2" shape="3996.80,13.60 4003.20,13.60 4003.64,11.38 4004.20,10.60 4004.98,10.04 4005.98,9.71 4007.20,9.60 4007.20,-9.60 3992.80,-9.60 3992.80,9.60 3995.02,10.04 3995.80,10.60 3996.36,11.38 3996.69,12.38">
        <request index="0" response="00011100" foes="00011100" cont="0"/>
        <request index="1" response="00000000" foes="00000000" cont="0"/>
        <request index="2" response="00000000" foes="00000001" cont="0"/>
        <request index="3" response="00000000" foes="00000001" cont="0"/>
        <request index="4" response="00000000" foes="00000001" cont="0"/>
        <request index="5" response="00000000" foes="00000000" cont="0"/>
        <request index="6" response="00000000" foes="00000000" cont="0"/>
        <request index="7" response="00000000" foes="00000000" cont="0"/>
    </junction>
    <junction id="gneJ8" type="priority" x="5000.00" y="0.00" incLanes="-gneE8_0 -gneE8_1 -gneE8_2 gneE7_0 gneE7_1 gneE7_2" intLanes=":gneJ8_0_0 :gneJ8_0_1 :gneJ8_0_2 :gneJ8_3_0 :gneJ8_3_1 :gneJ8_3_2" shape="5000.00,9.60 5000.00,-9.60 5000.00,9.60">
        <request index="0" response="000000" foes="000000" cont="0"/>
        <request index="1" response="000000" foes="000000" cont="0"/>
        <request index="2" response="000000" foes="000000" cont="0"/>
        <request index="3" response="000000" foes="000000" cont="0"/>
        <request index="4" response="000000" foes="000000" cont="0"/>
        <request index="5" response="000000" foes="000000" cont="0"/>
    </junction>
    <junction id="gneJ9" type="dead_end" x="5010.00" y="0.00" incLanes="gneE8_0 gneE8_1 gneE8_2" intLanes="" shape="5010.00,0.00 5010.00,-9.60 5010.00,0.00"/>

    <connection from="-gneE1" to="-gneE0" fromLane="0" toLane="0" via=":gneJ1_0_0" dir="s" state="M"/>
    <connection from="-gneE1" to="-gneE0" fromLane="1" toLane="1" via=":gneJ1_0_1" dir="s" state="M"/>
    <connection from="-gneE1" to="-gneE0" fromLane="2" toLane="2" via=":gneJ1_0_2" dir="s" state="M"/>
    <connection from="-gneE10" to="-gneE2" fromLane="0" toLane="0" via=":gneJ3_0_0" dir="r" state="m"/>
    <connection from="-gneE12" to="-gneE6" fromLane="0" toLane="0" via=":gneJ7_0_0" dir="r" state="m"/>
    <connection from="-gneE2" to="-gneE1" fromLane="0" toLane="0" via=":gneJ2_0_0" dir="s" state="M"/>
    <connection from="-gneE2" to="-gneE1" fromLane="1" toLane="1" via=":gneJ2_0_1" dir="s" state="M"/>
    <connection from="-gneE2" to="-gneE1" fromLane="2" toLane="2" via=":gneJ2_0_2" dir="s" state="M"/>
    <connection from="-gneE3" to="gneE10" fromLane="0" toLane="0" via=":gneJ3_1_0" dir="r" state="M"/>
    <connection from="-gneE3" to="-gneE2" fromLane="0" toLane="0" via=":gneJ3_2_0" dir="s" state="M"/>
    <connection from="-gneE3" to="-gneE2" fromLane="1" toLane="1" via=":gneJ3_2_1" dir="s" state="M"/>
    <connection from="-gneE3" to="-gneE2" fromLane="2" toLane="2" via=":gneJ3_2_2" dir="s" state="M"/>
    <connection from="-gneE4" to="-gneE3" fromLane="0" toLane="0" via=":gneJ4_0_0" dir="s" state="M"/>
    <connection from="-gneE4" to="-gneE3" fromLane="1" toLane="1" via=":gneJ4_0_1" dir="s" state="M"/>
    <connection from="-gneE4" to="-gneE3" fromLane="2" toLane="2" via=":gneJ4_0_2" dir="s" state="M"/>
    <connection from="-gneE5" to="-gneE4" fromLane="0" toLane="0" via=":-gneJ5_0_0" dir="s" state="M"/>
    <connection from="-gneE5" to="-gneE4" fromLane="0" toLane="1" via=":-gneJ5_0_1" dir="s" state="M"/>
    <connection from="-gneE5" to="-gneE4" fromLane="1" toLane="2" via=":-gneJ5_0_2" dir="s" state="M"/>
    <connection from="-gneE6" to="-gneE5" fromLane="1" toLane="0" via=":-gneJ6_0_0" dir="s" state="M"/>
    <connection from="-gneE6" to="-gneE5" fromLane="2" toLane="1" via=":-gneJ6_0_1" dir="s" state="M"/>
    <connection from="-gneE7" to="gneE12" fromLane="0" toLane="0" via=":gneJ7_1_0" dir="r" state="M"/>
    <connection from="-gneE7" to="-gneE6" fromLane="0" toLane="0" via=":gneJ7_2_0" dir="s" state="M"/>
    <connection from="-gneE7" to="-gneE6" fromLane="1" toLane="1" via=":gneJ7_2_1" dir="s" state="M"/>
    <connection from="-gneE7" to="-gneE6" fromLane="2" toLane="2" via=":gneJ7_2_2" dir="s" state="M"/>
    <connection from="-gneE8" to="-gneE7" fromLane="0" toLane="0" via=":gneJ8_0_0" dir="s" state="M"/>
    <connection from="-gneE8" to="-gneE7" fromLane="1" toLane="1" via=":gneJ8_0_1" dir="s" state="M"/>
    <connection from="-gneE8" to="-gneE7" fromLane="2" toLane="2" via=":gneJ8_0_2" dir="s" state="M"/>
    <connection from="gneE0" to="gneE1" fromLane="0" toLane="0" via=":gneJ1_3_0" dir="s" state="M"/>
    <connection from="gneE0" to="gneE1" fromLane="1" toLane="1" via=":gneJ1_3_1" dir="s" state="M"/>
    <connection from="gneE0" to="gneE1" fromLane="2" toLane="2" via=":gneJ1_3_2" dir="s" state="M"/>
    <connection from="gneE1" to="-gneE9" fromLane="0" toLane="0" via=":gneJ2_4_0" dir="r" state="M"/>
    <connection from="gneE1" to="gneE2" fromLane="0" toLane="0" via=":gneJ2_5_0" dir="s" state="M"/>
    <connection from="gneE1" to="gneE2" fromLane="1" toLane="1" via=":gneJ2_5_1" dir="s" state="M"/>
    <connection from="gneE1" to="gneE2" fromLane="2" toLane="2" via=":gneJ2_5_2" dir="s" state="M"/>
    <connection from="gneE11" to="gneE4" fromLane="0" toLane="0" via=":gneJ4_3_0" dir="r" state="m"/>
    <connection from="gneE2" to="gneE3" fromLane="0" toLane="0" via=":gneJ3_5_0" dir="s" state="M"/>
    <connection from="gneE2" to="gneE3" fromLane="1" toLane="1" via=":gneJ3_5_1" dir="s" state="M"/>
    <connection from="gneE2" to="gneE3" fromLane="2" toLane="2" via=":gneJ3_5_2" dir="s" state="M"/>
    <connection from="gneE3" to="-gneE11" fromLane="0" toLane="0" via=":gneJ4_4_0" dir="r" state="M"/>
    <connection from="gneE3" to="gneE4" fromLane="0" toLane="0" via=":gneJ4_5_0" dir="s" state="M"/>
    <connection from="gneE3" to="gneE4" fromLane="1" toLane="1" via=":gneJ4_5_1" dir="s" state="M"/>
    <connection from="gneE3" to="gneE4" fromLane="2" toLane="2" via=":gneJ4_5_2" dir="s" state="M"/>
    <connection from="gneE4" to="gneE5" fromLane="1" toLane="0" via=":gneJ5_0_0" dir="s" state="M"/>
    <connection from="gneE4" to="gneE5" fromLane="2" toLane="1" via=":gneJ5_0_1" dir="s" state="M"/>